384
Properties=species:S:1:pos:R:3:Z:I:1 pbc="F F F"
O      11.61608900       8.67997800       6.85918100        8 
H      10.64172700       8.83435800       6.67271600        1 
H      12.09320000       9.54563000       6.54417800        1 
O       7.40584300      15.25375100       3.86396200        8 
H       6.98822200      15.48548500       4.75090100        1 
H       8.08142800      14.53817400       3.88804300        1 
O       4.67200100      10.99982500       3.75618900        8 
H       5.38710400      11.07182000       3.05328700        1 
H       4.28033100      11.86592200       4.02431200        1 
O      14.30608700       9.58377600       3.31773000        8 
H      14.39026500       9.47200000       4.35142800        1 
H      15.25965500       9.38285500       3.00721000        1 
O       7.58482900       3.65240100       5.96684600        8 
H       7.59923100       3.22221700       5.06090900        1 
H       8.43493700       4.11961400       6.15624800        1 
O       9.56126200      13.85848400       3.11276600        8 
H      10.21710200      13.81314800       2.33395500        1 
H       9.72127400      13.20918900       3.83711000        1 
O      11.42734300       9.40538900      12.27170600        8 
H      11.87963300      10.01170100      11.63366400        1 
H      11.99450300       8.63773300      12.52239100        1 
O       3.99936800       0.97288000      10.20889100        8 
H       4.96274300       0.87735900      10.02427000        1 
H       3.82674700       0.67834300      11.17258300        1 
O      10.58056600      12.97467200       0.74642700        8 
H      10.15319900      12.05412100       0.58536000        1 
H      11.24518900      13.09604300       0.01604300        1 
O       1.81747300      11.62743300      12.76482800        8 
H       1.18557000      10.97740500      12.26440500        1 
H       2.69292900      11.08893200      12.65670500        1 
O       9.01411400       5.76793100       2.25632300        8 
H       9.51551000       4.93370800       2.18055300        1 
H       9.56413200       6.29249100       2.92537100        1 
O       7.11954900       8.51472200       1.99298000        8 
H       7.85459700       8.98886600       2.35157100        1 
H       6.80607800       7.73853300       2.57434700        1 
O      10.36980900      13.02781700      10.11695300        8 
H       9.42112200      13.35490300      10.36048400        1 
H      10.29467100      12.60205600       9.26994000        1 
O       4.24359000      10.19354800      13.33289600        8 
H       4.76020300       9.69412600      12.64345900        1 
H       4.30737700       9.71017100      14.26464200        1 
O       4.17045000       0.19569700      13.20623300        8 
H       4.26603000      14.82627500      13.33758600        1 
H       5.10955800       0.52104500      13.31509300        1 
O      14.03872000      12.46958900       1.53235100        8 
H      13.15343700      11.95403000       1.54477600        1 
H      14.66058800      11.97855000       0.87891600        1 
O       0.91518600       8.93073400      11.69033300        8 
H       1.16083200       8.63640200      12.63216700        1 
H       0.39533700       8.11830200      11.36181800        1 
O      12.84287800      12.98311100       8.10209200        8 
H      13.05165500      13.68603900       7.42329700        1 
H      12.45318200      13.43693400       8.88676700        1 
O       2.97274300      14.88765200       1.08747400        8 
H       3.98964000      14.62807100       1.27943700        1 
H       2.66908100      14.16490900       0.48922600        1 
O      13.99708000       3.07422800       6.64041200        8 
H      14.42684100       3.94302100       6.91442100        1 
H      13.17738600       3.12853100       6.05982900        1 
O       1.39753300      14.14849900       5.69172600        8 
H       1.57035600      13.87763700       6.63540400        1 
H       0.95264300      15.08946300       5.64717600        1 
O      12.66732300       7.32006700       1.05488100        8 
H      13.15684000       7.17891600       1.93425100        1 
H      12.68442000       6.36249600       0.63255400        1 
O       0.38356900       1.37204000       6.02593800        8 
H      15.18273900       1.93157100       6.18463800        1 
H       0.86416800       1.67208500       5.17434800        1 
O       8.31827400      15.02518300       7.86171100        8 
H       8.33502000      15.11139100       8.87760200        1 
H       8.12140100      14.03478900       7.71423800        1 
O      13.29488700      15.14551300       6.11694800        8 
H      13.87379300       0.31846300       6.30171200        1 
H      13.21820700      14.92825100       5.10448300        1 
O      11.34295600      13.88446300      13.59869600        8 
H      11.74780100      13.27193500      12.88468300        1 
H      11.43052400      14.83656100      13.21152100        1 
O       7.46188000      12.83862700      13.47482300        8 
H       7.99259800      12.02881700      13.07314200        1 
H       8.07107600      13.51542900      13.88226700        1 
O       0.26827000       9.75316100       6.00394200        8 
H       0.12354100      10.74755400       5.91558600        1 
H       1.14060700       9.54085600       5.56579700        1 
O       4.20375800       5.67541600       1.15230100        8 
H       4.85951500       5.78031800       1.91963800        1 
H       4.73396600       5.40634800       0.31589500        1 
O       2.30386800       5.75032800       7.43243700        8 
H       2.54608300       4.85963300       7.86319400        1 
H       1.95645200       6.42145800       8.10915600        1 
O       9.89511000       0.93831700       3.82487700        8 
H      10.65707800       1.08514300       3.23710100        1 
H       9.39409800       0.14824100       3.43553000        1 
O      10.11554000       1.48167800       6.80257000        8 
H       9.38541700       0.86798800       7.17201000        1 
H      10.17305000       1.19664800       5.80579700        1 
O       3.44240800       7.89192100      10.91682600        8 
H       3.79527700       8.11722000       9.98588300        1 
H       2.52908400       8.29693400      10.97455800        1 
O       6.26705700       0.26864900       6.08056700        8 
H       6.66615800       0.18365000       6.97163100        1 
H       5.29192500       0.65229700       6.28575500        1 
O       8.59916700       2.41513700      13.29595100        8 
H       9.57314000       2.47410900      12.99914500        1 
H       8.50551400       2.71389000      14.23898800        1 
O      15.06077800      11.89823900       9.76404400        8 
H      14.59524600      11.65932100      10.61535000        1 
H      14.31840800      12.43041800       9.35829600        1 
O      11.16797200       2.60830500      12.98259300        8 
H      11.35782400       2.96579100      12.06467500        1 
H      11.54334200       1.68049100      12.90906500        1 
O      13.15011000       4.57661300       0.62044200        8 
H      13.45697200       4.35825300      15.29168500        1 
H      12.71876900       3.76278500       1.07519600        1 
O      10.25506200       1.94730400       0.24598000        8 
H      10.76285800       2.07031600      15.05126400        1 
H      10.87015100       2.22517100       1.00600000        1 
O       5.35456400       6.86332600      12.54534300        8 
H       5.99171800       7.59716800      12.33043000        1 
H       4.59050900       6.89155700      11.78485500        1 
O      13.62596100       3.53317700      13.85067700        8 
H      14.30377500       2.75421100      13.78100600        1 
H      12.75524800       3.36767500      13.39677100        1 
O      12.06726600       3.13409100      10.47732100        8 
H      11.95456000       2.48746600       9.71185200        1 
H      13.01695600       3.48901100      10.26946900        1 
O       0.12555200       2.03485100      13.51965000        8 
H       0.62693400       2.63430100      14.15469400        1 
H       0.02556600       1.07926900      13.84791000        1 
O       8.42746100       5.21883400      15.10531600        8 
H       7.41222100       5.25735500      14.88314700        1 
H       8.74210400       5.79907700       0.21606900        1 
O       5.82774000       4.91500100      14.58749400        8 
H       5.71207500       5.72982300      13.93829900        1 
H       5.21531200       4.12448200      14.31595400        1 
O       5.35211500       5.35939500       9.58311700        8 
H       5.77069300       4.57763800       8.98962600        1 
H       5.79639600       5.21136400      10.54164800        1 
O       8.53454000       8.81971700       7.12375000        8 
H       7.82876800       8.35760900       6.66039900        1 
H       8.15710100       9.29682000       7.90885700        1 
O       5.06779300       4.48959000       4.91464600        8 
H       5.86939500       4.19578700       5.47694100        1 
H       4.87739500       3.72300200       4.25774700        1 
O       4.32814300       1.92895800       3.91962900        8 
H       3.98413500       1.66566000       4.85205300        1 
H       5.09994300       1.36533000       3.52773300        1 
O       1.31841300       9.29681200       2.50264800        8 
H       1.97039700       8.95059400       1.80669400        1 
H       1.92319700       9.71262500       3.24753200        1 
O       3.61997500       1.18502700       6.50971400        8 
H       3.65412200       2.07218900       7.01603800        1 
H       2.96121900       0.55169000       6.94352500        1 
O      14.91609900       6.04518100       2.43761000        8 
H       0.25020600       5.77941300       2.36935600        1 
H      14.41533800       5.43875800       1.82467200        1 
O       8.58376500       5.87701800      10.85408400        8 
H       9.02553500       6.08660200      11.74434800        1 
H       9.33766400       5.79969200      10.14172100        1 
O       0.77563500       7.83595100      14.34848400        8 
H       0.00996800       8.37015400      14.69576300        1 
H       1.49385700       7.58840600      15.02205700        1 
O      13.48352000       6.68756400       4.59923300        8 
H      14.10264800       6.73007200       5.40263800        1 
H      14.06808500       6.25763100       3.83160300        1 
O       8.26395600      14.66809500       0.06907700        8 
H       9.06698400      14.14697200       0.52724600        1 
H       7.71194500      15.12067100       0.77432200        1 
O       1.04484500       2.59187100      10.92625900        8 
H       0.92212100       2.11740800      11.82477200        1 
H       1.79792900       3.31211100      11.09326200        1 
O       8.39816800       8.30524500      14.85588700        8 
H       7.87685800       8.42788100       0.02895400        1 
H       7.76945100       8.47312900      14.05733300        1 
O       0.16231700      10.72542800       0.59520000        8 
H       0.63076600      10.23525800       1.35162600        1 
H      15.44853800      10.13588800      15.52941600        1 
O       3.70208200      10.63814400       9.53440600        8 
H       2.69428100      10.68327000       9.37349100        1 
H       4.13506400      10.40990000       8.68407200        1 
O       1.30480300       5.21886700       4.92000400        8 
H       0.43710300       5.57907600       5.30823100        1 
H       2.03917000       4.98576100       5.59552600        1 
O      10.18048000       6.48279000      13.32641200        8 
H       9.54554900       7.28201300      13.42295700        1 
H       9.71005700       5.84336800      13.96888400        1 
O       1.71254400       4.85026300       1.81572900        8 
H       1.77058300       4.68219400       2.79388600        1 
H       2.60610200       5.11004800       1.42093300        1 
O      10.21709600       4.07120500       6.81917800        8 
H      10.27911900       3.02582800       6.84126600        1 
H      10.34939200       4.47197300       7.76577700        1 
O       7.83146300       2.85568100       3.54771700        8 
H       8.65382500       2.20341700       3.61575000        1 
H       7.57237400       3.02333600       2.61455800        1 
O       7.37530300       8.77018500      12.43564100        8 
H       7.93099400       9.61377500      12.40143700        1 
H       7.49802700       8.40677200      11.49393900        1 
O      12.98331100      12.88089100      11.36751000        8 
H      11.99583500      12.66678200      11.08722800        1 
H      13.24673600      13.71966500      10.91345600        1 
O       9.30579500      10.68193000      12.98773100        8 
H      10.08666900      10.10309600      12.75028300        1 
H       9.34415800      10.67716700      14.04120000        1 
O       4.75673400       7.90231600       8.55180400        8 
H       5.03144700       6.97826200       8.86503700        1 
H       4.51539200       7.74816900       7.64690500        1 
O       1.77714500       3.79668900      14.99171800        8 
H       2.79353300       3.67474100      14.77294100        1 
H       1.53082900       3.97915300       0.31458800        1 
O       5.86696900      12.49192200      10.19636300        8 
H       5.07231300      11.88804400      10.06557600        1 
H       5.84789400      13.16942600       9.49212600        1 
O       6.99167300       8.03114400      10.03572200        8 
H       6.06997700       7.99977300       9.47773300        1 
H       7.39443300       7.14875500      10.12588800        1 
O       4.01689100       3.12569400      13.60311700        8 
H       3.91483200       2.12760900      13.69497500        1 
H       4.12181100       3.39400500      12.64089700        1 
O       3.80172600      13.41888100       4.37696400        8 
H       2.78107100      13.49527000       4.49890100        1 
H       4.18030900      13.60937900       5.33899400        1 
O       7.19305100       0.14579700      13.12913900        8 
H       7.60687100       1.05141700      13.11561200        1 
H       7.39417300      15.41578600      14.04806600        1 
O      10.78042200       5.23064300       9.27696100        8 
H      11.53598900       5.89149600       9.14584900        1 
H      11.16091600       4.40475300       9.73885000        1 
O      12.75654600      11.23664900       6.00745300        8 
H      13.51074800      11.46816400       5.39019000        1 
H      12.98701200      11.81142500       6.78663800        1 
O       1.90891900      12.66905400      15.37970200        8 
H       2.40647500      12.32396700      14.55607100        1 
H       1.24338800      11.97915500       0.01969900        1 
O      14.97767800       6.96374800      11.45151700        8 
H       0.06502300       6.44876000      11.97292000        1 
H      14.14342500       7.00897400      12.05210000        1 
O       6.36876500       3.50420200       8.24952900        8 
H       6.65411300       2.75984500       8.91180300        1 
H       6.94216000       3.46564100       7.42063800        1 
O       7.61757700      10.56558500       9.14667300        8 
H       6.95466100      11.19542800       9.60371200        1 
H       7.51704500       9.69661400       9.63195900        1 
O      14.58286800       4.06829300      10.12742100        8 
H      15.45094800       3.58576900      10.22715500        1 
H      14.68526800       5.03787200      10.41449700        1 
O      14.92818600       5.62879000       7.18632600        8 
H       0.10691200       6.09735200       7.67869100        1 
H      14.12706700       5.72711400       7.78243600        1 
O      14.79066400       1.42875400       2.39730500        8 
H      15.21550400       1.05006000       1.57151500        1 
H      15.55724700       1.75675400       2.89575400        1 
O      11.94186100       4.28807200       4.81224400        8 
H      11.15707700       4.36123600       5.45509100        1 
H      12.34490400       5.21853500       4.73498300        1 
O       3.92773500      14.26043800       8.73320800        8 
H       3.77038400      15.14421300       9.20687700        1 
H       3.05522400      13.79386200       8.70159200        1 
O       0.48141200      15.56029400      10.40623600        8 
H       1.03902600      15.25301100      11.19849100        1 
H       0.59017200       0.92219700      10.38030200        1 
O       9.82362100      10.39782400      15.63804900        8 
H       9.45539300       9.52029400      15.31610400        1 
H      10.35635400      10.10038900       0.80385900        1 
O       1.15872500      13.60791200       8.43529500        8 
H       0.69069800      12.89644700       9.02796400        1 
H       0.74821300      14.42177200       8.71034200        1 
O       1.26066900       9.74419000       8.68990800        8 
H       0.90955300      10.61064600       9.02844500        1 
H       0.88080000       9.66974300       7.77627100        1 
O       1.10671100       0.86606600       0.23373100        8 
H       1.35591600       1.79419400       0.36542300        1 
H       1.87734500       0.30169700       0.59882800        1 
O       7.87831100       3.06829500       0.92995700        8 
H       7.86542900       3.85272400       0.27952400        1 
H       8.63692200       2.37781700       0.68867700        1 
O       6.82478200       1.25977700       9.97039400        8 
H       7.03869700       2.00977900      10.64469300        1 
H       7.22174700       0.35582000      10.27991200        1 
O       7.99798100      12.42223500       7.13663800        8 
H       7.93029800      11.56946600       7.70708900        1 
H       8.33453000      12.13004600       6.21746700        1 
O       6.22412200       8.55016400       4.87006700        8 
H       5.72566400       9.40345300       4.54561200        1 
H       5.60606900       7.80017900       5.17373300        1 
O       3.97070900       6.88130000       5.82424900        8 
H       4.26560900       6.10516600       5.24273600        1 
H       3.41390000       6.43850100       6.57015100        1 
O       5.49322500      13.87911600       2.34579000        8 
H       6.26073000      14.48450500       2.75307200        1 
H       4.75394500      13.81232900       3.10291800        1 
O      12.23989300       1.43906400       8.44870100        8 
H      12.97037100       2.01665400       8.05600900        1 
H      11.57833000       1.03836200       7.82735000        1 
O      12.29729800       2.53146300       2.06346100        8 
H      12.15810100       3.14324900       2.80813100        1 
H      13.16349100       2.01235500       2.13286800        1 
O      15.28319600      12.33838200       4.65750600        8 
H      15.01515800      12.55377100       3.71269000        1 
H       0.33885800      13.02304700       4.99704100        1 
O       3.48807600       3.23808800       8.20684700        8 
H       3.34528000       2.73269400       9.09024700        1 
H       4.45971000       3.50702000       8.23479500        1 
O       4.82594700      10.35847300       6.96007600        8 
H       4.85806100      11.38791800       6.92019300        1 
H       5.71108300       9.95474900       6.78263500        1 
O       6.35233200       6.05349700       2.74995900        8 
H       7.37303700       5.82690100       2.73603700        1 
H       5.90054900       5.49606500       3.48707800        1 
O       1.40307500       2.43197700       3.63964800        8 
H       1.42163600       3.23814300       4.24409600        1 
H       2.33441200       2.17076000       3.37722700        1 
O      11.00440100       7.83160000       3.63542900        8 
H      11.84971100       7.47425000       4.06680700        1 
H      11.21427100       8.57749700       2.99989400        1 
O       5.51379600       9.44855700       0.13366000        8 
H       5.75395700      10.45906200       0.19331700        1 
H       5.91813800       9.10058100       0.98430000        1 
O       2.92652000       4.33759800      11.03716000        8 
H       3.65225800       4.88034000      10.62729300        1 
H       2.54879700       4.91693600      11.83493800        1 
O       7.89706400      14.47785900      10.69678700        8 
H       7.94781000      14.90744600      11.62079600        1 
H       7.16419700      13.81543600      10.76468900        1 
O      12.10569100       9.96911500       1.85655000        8 
H      12.82061300      10.08134000       2.57775900        1 
H      12.50383700       9.27315600       1.25155000        1 
O       0.54975100      14.25941100       2.48596500        8 
H       1.46401500      14.21169600       2.09389200        1 
H       0.02217400      13.54255300       2.01793300        1 
O       2.75795800       9.37591000       5.53026600        8 
H       3.09409700       8.45935900       5.71550700        1 
H       3.54079200      10.03384800       5.62321800        1 
O       3.16402900       8.22901300       0.85641600        8 
H       3.88539300       8.95753500       0.60231200        1 
H       3.57504000       7.30414200       0.82974200        1 
O       4.74213200      13.15769600      13.27406600        8 
H       5.75622900      13.10146900      13.51561900        1 
H       4.36533900      12.39220100      12.77568300        1 
O       9.62207900      11.89240700       4.92478700        8 
H      10.56238800      11.67867300       5.20260200        1 
H       9.24775800      11.06027500       4.46690900        1 
O       7.08335200       3.52180600      11.34325700        8 
H       7.43330300       4.43885400      11.03693800        1 
H       7.51600200       3.26224200      12.21635700        1 
O      13.32353000      15.14066200       9.99164500        8 
H      14.29381000      15.41736800       9.89968600        1 
H      12.79017700       0.03815800       9.28165600        1 
O      13.34241200      14.49624800       3.39540200        8 
H      14.28575100      14.92409200       3.28541300        1 
H      13.22793500      13.95934800       2.56664500        1 
O      12.68886700       6.94679300       8.65467000        8 
H      12.27915900       7.54144900       7.93154000        1 
H      13.35703900       7.44983200       9.19096500        1 
O       8.60231000       9.49852800       4.03805700        8 
H       9.26845300       8.70567500       4.12197900        1 
H       7.73522300       9.15644800       4.33459600        1 
O       1.25788100       5.66417100      13.06571800        8 
H       1.05950300       6.45687400      13.69994300        1 
H       1.49996400       4.82775200      13.62925400        1 
O       5.08000000      12.98441200       6.69700400        8 
H       4.62742000      13.55987100       7.35856700        1 
H       6.10091700      13.06928600       6.77949200        1 
O       0.65453500       7.14833000       9.21209600        8 
H       1.19936200       7.97849700       9.18423800        1 
H      15.59465300       7.26480200       9.91583500        1 
O      14.76797200      15.17681300      13.88652200        8 
H      15.62134900      14.68307600      13.59194300        1 
H      14.65406300      15.12359400      14.90538900        1 
O      13.89909800       9.31327400      14.75204400        8 
H      13.14716600       9.96373400      14.90255500        1 
H      13.64432700       8.44224900      15.12021600        1 
O       6.50323100      11.89540700       0.77964100        8 
H       6.12563100      12.62076700       1.39733100        1 
H       6.93442700      12.29509300      15.60055200        1 
O       1.57822000      14.39317900      12.59612000        8 
H       1.72545500      13.38836400      12.48758700        1 
H       2.39637600      14.62851000      13.08860500        1 
O      12.46197600       0.40329200      12.36197900        8 
H      13.17665600      15.51763000      12.89224500        1 
H      12.59222800       0.08737200      11.42807000        1 
O      12.78234200       6.48010400      13.13111200        8 
H      11.73733500       6.41391900      13.07797600        1 
H      13.16196200       5.59175600      13.27975900        1 
